
**** 03/04/17 23:26:06 ****** PSpice 17.2.0 (March 2016) ****** ID# 0 ********

 ** Profile: "SCHEMATIC1-bias"  [ C:\Users\Fred\Documents\GitHub\SmartSleeve\schematic\simulation-pspicefiles\schematic1\bias.sim ] 


 ****     CIRCUIT DESCRIPTION


******************************************************************************




** Creating circuit file "bias.cir" 
** WARNING: THIS AUTOMATICALLY GENERATED FILE MAY BE OVERWRITTEN BY SUBSEQUENT SIMULATIONS

*Libraries: 
* Profile Libraries :
* Local Libraries :
.LIB "C:/Cadence/Cadence_SPB_17.2-2016/tools/pspice/library/livingston/INA327.lib" 
* From [PSPICE NETLIST] section of C:\Cadence\SPB_Data\cdssetup\OrCAD_PSpice\17.2.0\PSpice.ini file:
.lib "nom.lib" 

*Analysis directives: 
.TRAN  0 50m 0 
.OPTIONS ADVCONV
.AUTOCONVERGE ITL1=1000 ITL2=1000 ITL4=1000 RELTOL=0.05 ABSTOL=1.0E-6 VNTOL=.001 PIVTOL=1.0E-10 
.PROBE64 V(alias(*)) I(alias(*)) W(alias(*)) D(alias(*)) NOISE(alias(*)) 
.INC "..\SCHEMATIC1.net" 



**** INCLUDING SCHEMATIC1.net ****
* source SIMULATION
R_R29         0 N50764  1.91k TC=0,0 
R_R3         N50764 VIN2- R_R3 4.02k TC=0,0 
.model        R_R3 RES R=1 DEV=0.1%
V_V1         VCC 0 3.2943Vdc
C_C4         VCC 0  10uF  
C_C2         0 VCC  0.1uF  TC=0,0 
C_C5         0 VCC  0.1uF  TC=0,0 
R_R25         VIN2- N50572 R_R25 4.02k TC=0,0 
.model        R_R25 RES R=1 DEV=0.1%
R_R4         N50764 VIN2+ R_R4 100k TC=0,0 
.model        R_R4 RES R=1 DEV=0.1%
R_R28         N50572 VCC  1.91k TC=0,0 
R_R26         VIN2+ N50572 R_R26 4.02k TC=0,0 
.model        R_R26 RES R=1 DEV=0.1%
R_R31         0 N52095  113k TC=0,0 
X_U10         N52009 VIN- VIN+ 0 VCC N52095 N52427 VCC N52063 INA327
R_R30         N52063 N52009  100k TC=0,0 
C_C9         0 N52095  1nF  TC=0,0 
C_C10         0 VCC  0.1uF  TC=0,0 
R_R32         N52427 VOUT  100 TC=0,0 
C_C11         0 VOUT  1uF  TC=0,0 
R_R14         0 ADC_BATT R_R14 7.15k TC=0,0 
.model        R_R14 RES R=1 DEV=0.1%
R_R13         ADC_BATT N52814 R_R13 10k TC=0,0 
.model        R_R13 RES R=1 DEV=0.1%
V_V2         N52814 0 6.Vdc
R_R36         N56455 VIN- R_R36 8.2k TC=0,0 
.model        R_R36 RES R=1 DEV=0.1%
R_R34         VIN- N56303 R_R34 8.2k TC=0,0 
.model        R_R34 RES R=1 DEV=0.1%
R_R37         N56455 VIN+ R_R37 100k TC=0,0 
.model        R_R37 RES R=1 DEV=0.1%
R_R33         N56303 N56267  976 TC=0,0 
R_R38         0 N56455  976 TC=0,0 
R_R35         VIN+ N56303 R_R35 8.2k TC=0,0 
.model        R_R35 RES R=1 DEV=0.1%
V_V3         N56267 0 3.003Vdc

**** RESUMING bias.cir ****
.END

**** 03/04/17 23:26:06 ****** PSpice 17.2.0 (March 2016) ****** ID# 0 ********

 ** Profile: "SCHEMATIC1-bias"  [ C:\Users\Fred\Documents\GitHub\SmartSleeve\schematic\simulation-pspicefiles\schematic1\bias.sim ] 


 ****     Diode MODEL PARAMETERS


******************************************************************************




               X_U10.D         X_U10.DVN       X_U10.DIN       
          IS   10.000000E-15  100.000000E-18   10.000000E-15 
          KF                  110.000000E-21                 


**** 03/04/17 23:26:06 ****** PSpice 17.2.0 (March 2016) ****** ID# 0 ********

 ** Profile: "SCHEMATIC1-bias"  [ C:\Users\Fred\Documents\GitHub\SmartSleeve\schematic\simulation-pspicefiles\schematic1\bias.sim ] 


 ****     BJT MODEL PARAMETERS


******************************************************************************




               X_U10.Q         X_U10.QP        X_U10.QMP       X_U10.QMN       
               NPN             PNP             PNP             NPN             
       LEVEL    1               1               1               1            
          IS  100.000000E-18  100.000000E-18  100.000000E-18  100.000000E-18 
          BF  100             100             100             100            
          NF    1               1               1               1            
          BR    1               1               1               1            
          NR    1               1               1               1            
         ISS    0               0               0               0            
          RE    0               0               0               0            
          RC    0               0               0               0            
         CJE    0               0               0               0            
         VJE     .75             .75             .75             .75         
         CJC    0               0               0               0            
         VJC     .75             .75             .75             .75         
         MJC     .33             .33             .33             .33         
        XCJC    1               1               1               1            
         CJS    0               0               0               0            
         VJS     .75             .75             .75             .75         
          KF    0               0               0               0            
          AF    1               1               1               1            
          CN    2.42            2.2             2.2             2.42         
           D     .87             .52             .52             .87         


**** 03/04/17 23:26:06 ****** PSpice 17.2.0 (March 2016) ****** ID# 0 ********

 ** Profile: "SCHEMATIC1-bias"  [ C:\Users\Fred\Documents\GitHub\SmartSleeve\schematic\simulation-pspicefiles\schematic1\bias.sim ] 


 ****     Junction FET MODEL PARAMETERS


******************************************************************************




               X_U10.J         X_U10.JX        
               NJF             NJF             
         VTO   -2              -2            
        BETA  100.000000E-06  100.000000E-06 
          IS                  100.000000E-18 


**** 03/04/17 23:26:06 ****** PSpice 17.2.0 (March 2016) ****** ID# 0 ********

 ** Profile: "SCHEMATIC1-bias"  [ C:\Users\Fred\Documents\GitHub\SmartSleeve\schematic\simulation-pspicefiles\schematic1\bias.sim ] 


 ****     MOSFET MODEL PARAMETERS


******************************************************************************




               X_U10.PSH1      X_U10.PSH2      X_U10.NIQ       X_U10.POUTO     
               NMOS            NMOS            NMOS            PMOS            
       LEVEL    1               1               1               1            
           L  100.000000E-06  100.000000E-06  100.000000E-06  100.000000E-06 
           W  100.000000E-06  100.000000E-06  100.000000E-06  100.000000E-06 
         VTO    1.7              .7              .5             -.7          
          KP  200.000000E-06     .02             .02          200.000000E-06 
       GAMMA    0               0               0               0            
         PHI     .6              .6              .6              .6          
      LAMBDA    0               0               0               0            
          IS   10.000000E-15    1.000000E-18    1.000000E-18   10.000000E-15 
          JS    0               0               0               0            
          PB     .8              .8              .8              .8          
        PBSW     .8              .8              .8              .8          
          CJ    0               0               0               0            
        CJSW    0               0               0               0            
        CGSO    0               0               0               0            
        CGDO    0               0               0               0            
        CGBO    0               0               0               0            
         TOX    0               0               0               0            
          XJ    0               0               0               0            
       UCRIT   10.000000E+03   10.000000E+03   10.000000E+03   10.000000E+03 
      DIOMOD    1               1               1               1            
         VFB    0               0               0               0            
        LETA    0               0               0               0            
        WETA    0               0               0               0            
          U0    0               0               0               0            
        TEMP    0               0               0               0            
         VDD    5               5               5               5            
       XPART    0               0               0               0            


               X_U10.NOUTO     X_U10.POUT      X_U10.NOUT      X_U10.PIN       
               NMOS            PMOS            NMOS            PMOS            
       LEVEL    1               1               1               1            
           L  100.000000E-06  100.000000E-06  100.000000E-06  100.000000E-06 
           W  100.000000E-06  100.000000E-06  100.000000E-06  100.000000E-06 
         VTO     .7             -.7              .7             -.7          
          KP  200.000000E-06    2.000000E-06    2.000000E-06  200.000000E-06 
       GAMMA    0               0               0               0            
         PHI     .6              .6              .6              .6          
      LAMBDA    0               0               0               0            
          IS   10.000000E-15   10.000000E-15   10.000000E-15   10.000000E-15 
          JS    0               0               0               0            
          PB     .8              .8              .8              .8          
        PBSW     .8              .8              .8              .8          
          CJ    0               0               0               0            
        CJSW    0               0               0               0            
        CGSO    0               0               0               0            
        CGDO    0               0               0               0            
        CGBO    0               0               0               0            
         TOX    0               0               0               0            
          XJ    0               0               0               0            
       UCRIT   10.000000E+03   10.000000E+03   10.000000E+03   10.000000E+03 
      DIOMOD    1               1               1               1            
         VFB    0               0               0               0            
        LETA    0               0               0               0            
        WETA    0               0               0               0            
          U0    0               0               0               0            
        TEMP    0               0               0               0            
         VDD    5               5               5               5            
       XPART    0               0               0               0            


               X_U10.NIN       X_U10.PMIR      X_U10.NMIR      X_U10.PSD       
               NMOS            PMOS            NMOS            PMOS            
       LEVEL    1               1               1               1            
           L  100.000000E-06  100.000000E-06  100.000000E-06  100.000000E-06 
           W  100.000000E-06  100.000000E-06  100.000000E-06  100.000000E-06 
         VTO     .7             -.7              .7            -5            
          KP  200.000000E-06  200.000000E-06  200.000000E-06  200.000000E-06 
       GAMMA    0               0               0               0            
         PHI     .6              .6              .6              .6          
      LAMBDA    0               0               0               0            
          IS   10.000000E-15   10.000000E-15   10.000000E-15    1.000000E-18 
          JS    0               0               0               0            
          PB     .8              .8              .8              .8          
        PBSW     .8              .8              .8              .8          
          CJ    0               0               0               0            
        CJSW    0               0               0               0            
        CGSO    0               0               0               0            
        CGDO    0               0               0               0            
        CGBO    0               0               0               0            
         TOX    0               0               0               0            
          XJ    0               0               0               0            
       UCRIT   10.000000E+03   10.000000E+03   10.000000E+03   10.000000E+03 
      DIOMOD    1               1               1               1            
         VFB    0               0               0               0            
        LETA    0               0               0               0            
        WETA    0               0               0               0            
          U0    0               0               0               0            
        TEMP    0               0               0               0            
         VDD    5               5               5               5            
       XPART    0               0               0               0            


**** 03/04/17 23:26:06 ****** PSpice 17.2.0 (March 2016) ****** ID# 0 ********

 ** Profile: "SCHEMATIC1-bias"  [ C:\Users\Fred\Documents\GitHub\SmartSleeve\schematic\simulation-pspicefiles\schematic1\bias.sim ] 


 ****     Resistor MODEL PARAMETERS


******************************************************************************




               R_R3            R_R25           R_R4            R_R26           
           R    1               1               1               1            


               R_R14           R_R13           R_R36           R_R34           
           R    1               1               1               1            


               R_R37           R_R35           
           R    1               1            


**** 03/04/17 23:26:06 ****** PSpice 17.2.0 (March 2016) ****** ID# 0 ********

 ** Profile: "SCHEMATIC1-bias"  [ C:\Users\Fred\Documents\GitHub\SmartSleeve\schematic\simulation-pspicefiles\schematic1\bias.sim ] 


 ****     INITIAL TRANSIENT SOLUTION       TEMPERATURE =   27.000 DEG C


******************************************************************************



 NODE   VOLTAGE     NODE   VOLTAGE     NODE   VOLTAGE     NODE   VOLTAGE


(  VCC)    3.2943  ( VIN+)    2.6219  ( VIN-)    1.5015  ( VOUT)    2.5325      

(VIN2+)    2.6524  (VIN2-)    1.6472  (N50572)    2.7366 (N50764)     .5577     

(N52009)    1.5015 (N52063)    2.6219 (N52095)    2.5318 (N52427)    2.5325     

(N52814)    6.0000 (N56267)    3.0030 (N56303)    2.8220 (N56455)     .1810     

(ADC_BATT)    2.5015                  (X_U10.11)    4.1674                      

(X_U10.12)    3.2944                  (X_U10.13)-40.25E-06                      

(X_U10.14)    -.7980                  (X_U10.15)    2.6219                      

(X_U10.16)    2.6219                  (X_U10.17)    -.0286                      

(X_U10.18)    3.4113                  (X_U10.19)    4.1674                      

(X_U10.20)    3.2944                  (X_U10.21)-40.25E-06                      

(X_U10.22)    -.7980                  (X_U10.23)    2.5318                      

(X_U10.24)    -.0421                  (X_U10.25)    3.3868                      

(X_U10.26)    1.0598                  (X_U10.27)     .2203                      

(X_U10.28)    -.0286                  (X_U10.29)    2.3076                      

(X_U10.30)    2.3076                  (X_U10.31)    2.3076                      

(X_U10.32)     .2203                  (X_U10.33)    3.3080                      

(X_U10.34)    3.3080                  (X_U10.35)    3.4103                      

(X_U10.36)    -.0261                  (X_U10.37)    1.8820                      

(X_U10.38)    1.8820                  (X_U10.39)    3.4103                      

(X_U10.40)    3.4113                  (X_U10.41)    -.0276                      

(X_U10.42)    1.5015                  (X_U10.43)     .5955                      

(X_U10.44)     .5955                  (X_U10.45)     .5539                      

(X_U10.46)     .5539                  (X_U10.47)    1.5015                      

(X_U10.48)    1.5015                  (X_U10.49)    1.6914                      

(X_U10.50)    1.5005                  (X_U10.51)    1.2098                      

(X_U10.52)    1.5019                  (X_U10.53)    2.3651                      

(X_U10.54)    2.3639                  (X_U10.55)     .0175                      

(X_U10.56)    1.5015                  (X_U10.57)     .0175                      

(X_U10.58)    1.0189                  (X_U10.59)    2.3651                      

(X_U10.60)    1.2098                  (X_U10.61)    1.6914                      

(X_U10.62)    1.5015                  (X_U10.63)    2.4965                      

(X_U10.64)    1.3076                  (X_U10.65)    2.6378                      

(X_U10.66)     .2714                  (X_U10.67)    1.6914                      

(X_U10.68)  190.4300                  (X_U10.69)    1.8220                      

(X_U10.70)    1.2098                  (X_U10.71)    2.3651                      

(X_U10.72)   11.8820                  (X_U10.73)    1.0000                      

(X_U10.74)    1.8820                  (X_U10.75)    1.5246                      

(X_U10.76)     .8714                  (X_U10.77)     .0604                      

(X_U10.78)    -.0421                  (X_U10.79)    3.4279                      

(X_U10.80)    3.4280                  (X_U10.81)    3.4279                      

(X_U10.82)     .0604                  (X_U10.83)    2.9930                      

(X_U10.84)    2.9930                  (X_U10.85)    3.3828                      

(X_U10.86)    -.0411                  (X_U10.87)    1.3419                      

(X_U10.88)    1.3419                  (X_U10.89)    3.3857                      

(X_U10.90)    3.3868                  (X_U10.91)    -.0410                      

(X_U10.92)     .5955                  (X_U10.93)     .5955                      

(X_U10.94)     .5539                  (X_U10.95)     .5539                      

(X_U10.96)    2.6219                  (X_U10.97)    2.6219                      

(X_U10.98)    1.6724                  (X_U10.99)    2.6215                      

(X_U10.100)    1.0028                 (X_U10.101)    2.6234                     

(X_U10.102)    2.0088                 (X_U10.103)    2.3393                     

(X_U10.104)     .0040                 (X_U10.105)    2.6219                     

(X_U10.106)     .0041                 (X_U10.107)    1.0054                     

(X_U10.108)    2.0088                 (X_U10.109)    1.0028                     

(X_U10.110)    1.6724                 (X_U10.111)    2.6219                     

(X_U10.112)    2.2835                 (X_U10.113)    2.4280                     

(X_U10.114)    2.6133                 (X_U10.115)     .2579                     

(X_U10.116)    1.6724                 (X_U10.117)    1.3824                     

(X_U10.118) -325.5400                 (X_U10.119)    1.0028                     

(X_U10.120)    2.0088                 (X_U10.121)   11.3420                     

(X_U10.122)    1.3419                 (X_U10.123)    1.3167                     

(X_U10.124)     .6881                 (X_U10.125)     .0032                     

(X_U10.126)    0.0000                 (X_U10.127)    3.3386                     

(X_U10.128)    3.3387                 (X_U10.129)    3.3386                     

(X_U10.130)     .0032                 (X_U10.131)    3.2911                     

(X_U10.132)    3.2911                 (X_U10.133)    3.2918                     

(X_U10.134)     .0025                 (X_U10.135)    1.6472                     

(X_U10.136)    1.6472                 (X_U10.137)    3.2919                     

(X_U10.138)    3.2943                 (X_U10.139)     .0024                     

(X_U10.140)    2.5325                 (X_U10.141)     .5955                     

(X_U10.142)     .5955                 (X_U10.143)     .5539                     

(X_U10.144)     .5539                 (X_U10.145)    2.5325                     

(X_U10.146)    2.5325                 (X_U10.147)    2.5325                     

(X_U10.148) 96.71E-06                 (X_U10.149)    3.2943                     

(X_U10.150)    0.0000                 (X_U10.151)    2.5325                     

(X_U10.152)    2.5325                 (X_U10.153) 329.4E-06                     

(X_U10.154)    0.0000                 (X_U10.155) 253.2E-06                     

(X_U10.156)    2.5321                 (X_U10.157)    2.5325                     

(X_U10.158)    2.5325                 (X_U10.159)    2.5321                     

(X_U10.160)    1.6472                 (X_U10.161)    2.5285                     

(X_U10.162)     .8132                 (X_U10.163)    2.5366                     

(X_U10.164)    2.4811                 (X_U10.165)    2.4824                     

(X_U10.166)     .0461                 (X_U10.167)    2.5325                     

(X_U10.168)     .0461                 (X_U10.169)     .8119                     

(X_U10.170)    2.4811                 (X_U10.171)     .8132                     

(X_U10.172)    1.6472                 (X_U10.173)    2.5325                     

(X_U10.174)    2.6062                 (X_U10.175)    2.3387                     

(X_U10.176)    2.5208                 (X_U10.177)    2.9372                     

(X_U10.178)     .4481                 (X_U10.179)    1.6472                     

(X_U10.180)    2.0299                 (X_U10.181)    1.2644                     

(X_U10.182)     .8132                 (X_U10.183)    2.4811                     

(X_U10.184) 99.39E-06                 (X_U10.185)     .6551                     

(X_U10.186) 99.39E-06                 (X_U10.187)   11.6470                     

(X_U10.188)    1.6471                 (X_U10.189)    1.3185                     

(X_U10.190)    2.0617                 (X_U10.191)    2.0617                     

(X_U10.192) 206.1E-06                 (X_U10.193) 1.649E-09                     

(X_U10.194)    2.6219                 (X_U10.195)    1.5015                     

(X_U10.196)     .6551                 (X_U10.197) 99.39E-06                     

(X_U10.198)    3.2942                 (X_U10.199) 139.1E-06                     

(X_U10.200) 99.39E-06                 (X_U10.201)     .6551                     

(X_U10.202)     .6551                 (X_U10.203) 99.39E-06                     

(X_U10.204) 619.9E-06                 (X_U10.205) 619.9E-06                     

(X_U10.206)    2.8076                 (X_U10.207)    1.0000                     

(X_U10.208) 1.000E-06                 (X_U10.209)    1.0000                     

(X_U10.210)   -1.0000                 (X_U10.220) 329.4E-06                     

(X_U10.221)    0.0000                 




    VOLTAGE SOURCE CURRENTS
    NAME         CURRENT

    V_V1        -2.408E-03
    V_V2        -3.499E-04
    V_V3        -1.854E-04
    X_U10.V78    0.000E+00
    X_U10.V79    1.120E-05
    X_U10.V80    1.120E-05
    X_U10.V37   -4.189E-05
    X_U10.V38   -6.430E-05
    X_U10.V41   -1.120E-05
    X_U10.V43   -8.658E-05
    X_U10.V44   -4.176E-05
    X_U10.V45    2.241E-05
    X_U10.V53    6.776E-21
    X_U10.V54    4.500E-05
    X_U10.V57    4.921E-12
    X_U10.V58    0.000E+00
    X_U10.V62   -5.421E-20
    X_U10.V63    4.500E-05
    X_U10.V66    9.456E-12
    X_U10.V67    0.000E+00
    X_U10.V71    0.000E+00
    X_U10.V72    4.500E-05
    X_U10.V74    9.939E-11
    X_U10.V76    0.000E+00
    X_U10.V82    9.939E-11
    X_U10.V83    9.939E-11
    X_U10.V84    8.292E-13
    X_U10.V85    8.378E-12
    X_U10.V86    9.939E-11
    X_U10.V88   -1.000E-12
    X_U10.V89   -1.000E-12

    TOTAL POWER DISSIPATION   1.09E-02  WATTS



          JOB CONCLUDED
 AutoConverge Simulator Options
 ITL1 = 150
 ITL2 = 20
 ITL4 = 10
 RELTOL = 0.001
 ABSTOL = 1e-012
 VNTOL = 1e-006
 PIVTOL = 1e-013

**** 03/04/17 23:26:06 ****** PSpice 17.2.0 (March 2016) ****** ID# 0 ********

 ** Profile: "SCHEMATIC1-bias"  [ C:\Users\Fred\Documents\GitHub\SmartSleeve\schematic\simulation-pspicefiles\schematic1\bias.sim ] 


 ****     JOB STATISTICS SUMMARY


******************************************************************************



  Total job time (using Solver 1)   =       56.70
