
**** 01/20/17 15:26:57 ****** PSpice 17.2.0 (March 2016) ****** ID# 0 ********

 ** Profile: "SCHEMATIC1-bias"  [ C:\Users\Fred\Documents\GitHub\SmartSleeve\schematic\simulation-PSpiceFiles\SCHEMATIC1\bias.sim ] 


 ****     CIRCUIT DESCRIPTION


******************************************************************************




** Creating circuit file "bias.cir" 
** WARNING: THIS AUTOMATICALLY GENERATED FILE MAY BE OVERWRITTEN BY SUBSEQUENT SIMULATIONS

*Libraries: 
* Profile Libraries :
* Local Libraries :
* From [PSPICE NETLIST] section of C:\Cadence\SPB_Data\cdssetup\OrCAD_PSpice\17.2.0\PSpice.ini file:
.lib "nom.lib" 

*Analysis directives: 
.TRAN  0 100m 0 
.OPTIONS ADVCONV
.PROBE64 V(alias(*)) I(alias(*)) W(alias(*)) D(alias(*)) NOISE(alias(*)) 
.INC "..\SCHEMATIC1.net" 



**** INCLUDING SCHEMATIC1.net ****
* source SIMULATION
R_R29         0 N50764  1.91k TC=0,0 
R_R3         N50764 VIN- R_R3 4.02k TC=0,0 
.model        R_R3 RES R=1 DEV=0.1%
V_V1         VCC 0 3.3Vdc
C_C4         VCC 0  10uF  
C_C2         0 VCC  0.1uF  TC=0,0 
C_C5         0 VCC  0.1uF  TC=0,0 
R_R25         VIN- N50572 R_R25 4.02k TC=0,0 
.model        R_R25 RES R=1 DEV=0.1%
R_R4         N50764 VIN+ R_R4 100k TC=0,0 
.model        R_R4 RES R=1 DEV=0.1%
R_R28         N50572 VCC  1.91k TC=0,0 
R_R26         VIN+ N50572 R_R26 4.02k TC=0,0 
.model        R_R26 RES R=1 DEV=0.1%
R_R31         0 N52095  127k TC=0,0 
X_U10         N52009 VIN- VIN+ 0 VCC N52095 VOUT VCC N52063 INA327
R_R30         N52063 N52009  100k TC=0,0 
C_C9         0 N52095  1n  TC=0,0 
C_C10         0 VCC  0.1uF  TC=0,0 

**** RESUMING bias.cir ****
.END

ERROR(ORPSIM-15108): Subcircuit INA327 used by X_U10 is undefined
