
**** 01/20/17 16:02:43 ****** PSpice 17.2.0 (March 2016) ****** ID# 0 ********

 ** Profile: "SCHEMATIC1-bias"  [ C:\Users\Fred\Documents\GitHub\SmartSleeve\schematic\simulation-PSpiceFiles\SCHEMATIC1\bias.sim ] 


 ****     CIRCUIT DESCRIPTION


******************************************************************************




** Creating circuit file "bias.cir" 
** WARNING: THIS AUTOMATICALLY GENERATED FILE MAY BE OVERWRITTEN BY SUBSEQUENT SIMULATIONS

*Libraries: 
* Profile Libraries :
* Local Libraries :
.LIB "C:/Cadence/Cadence_SPB_17.2-2016/tools/pspice/library/livingston/INA327.lib" 
* From [PSPICE NETLIST] section of C:\Cadence\SPB_Data\cdssetup\OrCAD_PSpice\17.2.0\PSpice.ini file:
.lib "nom.lib" 

*Analysis directives: 
.OP
.OPTIONS ADVCONV
.AUTOCONVERGE ITL1=1000 ITL2=1000 ITL4=1000 RELTOL=0.05 ABSTOL=1.0E-6 VNTOL=.001 PIVTOL=1.0E-10 
.PROBE64 V(alias(*)) I(alias(*)) W(alias(*)) D(alias(*)) NOISE(alias(*)) 
.INC "..\SCHEMATIC1.net" 



**** INCLUDING SCHEMATIC1.net ****
* source SIMULATION
R_R29         0 N50764  1.91k TC=0,0 
R_R3         N50764 VIN- R_R3 4.02k TC=0,0 
.model        R_R3 RES R=1 DEV=0.1%
V_V1         VCC 0 3.3Vdc
C_C4         VCC 0  10uF  
C_C2         0 VCC  0.1uF  TC=0,0 
C_C5         0 VCC  0.1uF  TC=0,0 
R_R25         VIN- N50572 R_R25 4.02k TC=0,0 
.model        R_R25 RES R=1 DEV=0.1%
R_R4         N50764 VIN+ R_R4 100k TC=0,0 
.model        R_R4 RES R=1 DEV=0.1%
R_R28         N50572 VCC  1.91k TC=0,0 
R_R26         VIN+ N50572 R_R26 4.02k TC=0,0 
.model        R_R26 RES R=1 DEV=0.1%
R_R31         0 N52095  127k TC=0,0 
X_U10         N52009 VIN- VIN+ 0 VCC N52095 N52427 VCC N52063 INA327
R_R30         N52063 N52009  100k TC=0,0 
C_C9         0 N52095  1nF  TC=0,0 
C_C10         0 VCC  0.1uF  TC=0,0 
R_R32         N52427 VOUT  100 TC=0,0 
C_C11         0 VOUT  1uF  TC=0,0 
R_R14         0 ADC_BATT R_R14 7.15k TC=0,0 
.model        R_R14 RES R=1 DEV=0.1%
R_R13         ADC_BATT N52814 R_R13 10k TC=0,0 
.model        R_R13 RES R=1 DEV=0.1%
V_V2         N52814 0 6.Vdc

**** RESUMING bias.cir ****
.END

**** 01/20/17 16:02:43 ****** PSpice 17.2.0 (March 2016) ****** ID# 0 ********

 ** Profile: "SCHEMATIC1-bias"  [ C:\Users\Fred\Documents\GitHub\SmartSleeve\schematic\simulation-PSpiceFiles\SCHEMATIC1\bias.sim ] 


 ****     Diode MODEL PARAMETERS


******************************************************************************




               X_U10.D         X_U10.DVN       X_U10.DIN       
          IS   10.000000E-15  100.000000E-18   10.000000E-15 
          KF                  110.000000E-21                 


**** 01/20/17 16:02:43 ****** PSpice 17.2.0 (March 2016) ****** ID# 0 ********

 ** Profile: "SCHEMATIC1-bias"  [ C:\Users\Fred\Documents\GitHub\SmartSleeve\schematic\simulation-PSpiceFiles\SCHEMATIC1\bias.sim ] 


 ****     BJT MODEL PARAMETERS


******************************************************************************




               X_U10.Q         X_U10.QP        X_U10.QMP       X_U10.QMN       
               NPN             PNP             PNP             NPN             
       LEVEL    1               1               1               1            
          IS  100.000000E-18  100.000000E-18  100.000000E-18  100.000000E-18 
          BF  100             100             100             100            
          NF    1               1               1               1            
          BR    1               1               1               1            
          NR    1               1               1               1            
         ISS    0               0               0               0            
          RE    0               0               0               0            
          RC    0               0               0               0            
         CJE    0               0               0               0            
         VJE     .75             .75             .75             .75         
         CJC    0               0               0               0            
         VJC     .75             .75             .75             .75         
         MJC     .33             .33             .33             .33         
        XCJC    1               1               1               1            
         CJS    0               0               0               0            
         VJS     .75             .75             .75             .75         
          KF    0               0               0               0            
          AF    1               1               1               1            
          CN    2.42            2.2             2.2             2.42         
           D     .87             .52             .52             .87         


**** 01/20/17 16:02:43 ****** PSpice 17.2.0 (March 2016) ****** ID# 0 ********

 ** Profile: "SCHEMATIC1-bias"  [ C:\Users\Fred\Documents\GitHub\SmartSleeve\schematic\simulation-PSpiceFiles\SCHEMATIC1\bias.sim ] 


 ****     Junction FET MODEL PARAMETERS


******************************************************************************




               X_U10.J         X_U10.JX        
               NJF             NJF             
         VTO   -2              -2            
        BETA  100.000000E-06  100.000000E-06 
          IS                  100.000000E-18 


**** 01/20/17 16:02:43 ****** PSpice 17.2.0 (March 2016) ****** ID# 0 ********

 ** Profile: "SCHEMATIC1-bias"  [ C:\Users\Fred\Documents\GitHub\SmartSleeve\schematic\simulation-PSpiceFiles\SCHEMATIC1\bias.sim ] 


 ****     MOSFET MODEL PARAMETERS


******************************************************************************




               X_U10.PSH1      X_U10.PSH2      X_U10.NIQ       X_U10.POUTO     
               NMOS            NMOS            NMOS            PMOS            
       LEVEL    1               1               1               1            
           L  100.000000E-06  100.000000E-06  100.000000E-06  100.000000E-06 
           W  100.000000E-06  100.000000E-06  100.000000E-06  100.000000E-06 
         VTO    1.7              .7              .5             -.7          
          KP  200.000000E-06     .02             .02          200.000000E-06 
       GAMMA    0               0               0               0            
         PHI     .6              .6              .6              .6          
      LAMBDA    0               0               0               0            
          IS   10.000000E-15    1.000000E-18    1.000000E-18   10.000000E-15 
          JS    0               0               0               0            
          PB     .8              .8              .8              .8          
        PBSW     .8              .8              .8              .8          
          CJ    0               0               0               0            
        CJSW    0               0               0               0            
        CGSO    0               0               0               0            
        CGDO    0               0               0               0            
        CGBO    0               0               0               0            
         TOX    0               0               0               0            
          XJ    0               0               0               0            
       UCRIT   10.000000E+03   10.000000E+03   10.000000E+03   10.000000E+03 
      DIOMOD    1               1               1               1            
         VFB    0               0               0               0            
        LETA    0               0               0               0            
        WETA    0               0               0               0            
          U0    0               0               0               0            
        TEMP    0               0               0               0            
         VDD    5               5               5               5            
       XPART    0               0               0               0            


               X_U10.NOUTO     X_U10.POUT      X_U10.NOUT      X_U10.PIN       
               NMOS            PMOS            NMOS            PMOS            
       LEVEL    1               1               1               1            
           L  100.000000E-06  100.000000E-06  100.000000E-06  100.000000E-06 
           W  100.000000E-06  100.000000E-06  100.000000E-06  100.000000E-06 
         VTO     .7             -.7              .7             -.7          
          KP  200.000000E-06    2.000000E-06    2.000000E-06  200.000000E-06 
       GAMMA    0               0               0               0            
         PHI     .6              .6              .6              .6          
      LAMBDA    0               0               0               0            
          IS   10.000000E-15   10.000000E-15   10.000000E-15   10.000000E-15 
          JS    0               0               0               0            
          PB     .8              .8              .8              .8          
        PBSW     .8              .8              .8              .8          
          CJ    0               0               0               0            
        CJSW    0               0               0               0            
        CGSO    0               0               0               0            
        CGDO    0               0               0               0            
        CGBO    0               0               0               0            
         TOX    0               0               0               0            
          XJ    0               0               0               0            
       UCRIT   10.000000E+03   10.000000E+03   10.000000E+03   10.000000E+03 
      DIOMOD    1               1               1               1            
         VFB    0               0               0               0            
        LETA    0               0               0               0            
        WETA    0               0               0               0            
          U0    0               0               0               0            
        TEMP    0               0               0               0            
         VDD    5               5               5               5            
       XPART    0               0               0               0            


               X_U10.NIN       X_U10.PMIR      X_U10.NMIR      X_U10.PSD       
               NMOS            PMOS            NMOS            PMOS            
       LEVEL    1               1               1               1            
           L  100.000000E-06  100.000000E-06  100.000000E-06  100.000000E-06 
           W  100.000000E-06  100.000000E-06  100.000000E-06  100.000000E-06 
         VTO     .7             -.7              .7            -5            
          KP  200.000000E-06  200.000000E-06  200.000000E-06  200.000000E-06 
       GAMMA    0               0               0               0            
         PHI     .6              .6              .6              .6          
      LAMBDA    0               0               0               0            
          IS   10.000000E-15   10.000000E-15   10.000000E-15    1.000000E-18 
          JS    0               0               0               0            
          PB     .8              .8              .8              .8          
        PBSW     .8              .8              .8              .8          
          CJ    0               0               0               0            
        CJSW    0               0               0               0            
        CGSO    0               0               0               0            
        CGDO    0               0               0               0            
        CGBO    0               0               0               0            
         TOX    0               0               0               0            
          XJ    0               0               0               0            
       UCRIT   10.000000E+03   10.000000E+03   10.000000E+03   10.000000E+03 
      DIOMOD    1               1               1               1            
         VFB    0               0               0               0            
        LETA    0               0               0               0            
        WETA    0               0               0               0            
          U0    0               0               0               0            
        TEMP    0               0               0               0            
         VDD    5               5               5               5            
       XPART    0               0               0               0            


**** 01/20/17 16:02:43 ****** PSpice 17.2.0 (March 2016) ****** ID# 0 ********

 ** Profile: "SCHEMATIC1-bias"  [ C:\Users\Fred\Documents\GitHub\SmartSleeve\schematic\simulation-PSpiceFiles\SCHEMATIC1\bias.sim ] 


 ****     Resistor MODEL PARAMETERS


******************************************************************************




               R_R3            R_R25           R_R4            R_R26           
           R    1               1               1               1            


               R_R14           R_R13           
           R    1               1            


Starting pseudo-transient algorithm.
Convergence problem in bias point calculation


  Last node voltages tried were:

 NODE   VOLTAGE     NODE   VOLTAGE     NODE   VOLTAGE     NODE   VOLTAGE


(  VCC)    0.0000  ( VIN+)    0.0000  ( VIN-)    0.0000  ( VOUT)    0.0000      

(N50572)    0.0000 (N50764)    0.0000 (N52009)    0.0000 (N52063)    0.0000     

(N52095)    0.0000 (N52427)    0.0000 (N52814)    0.0000 (ADC_BATT)    0.0000   

(X_U10.11)    0.0000                  (X_U10.12)    0.0000                      

(X_U10.13)    0.0000                  (X_U10.14)    0.0000                      

(X_U10.15)    0.0000                  (X_U10.16)    0.0000                      

(X_U10.17)    0.0000                  (X_U10.18)    0.0000                      

(X_U10.19)    0.0000                  (X_U10.20)    0.0000                      

(X_U10.21)    0.0000                  (X_U10.22)    0.0000                      

(X_U10.23)    0.0000                  (X_U10.24)    0.0000                      

(X_U10.25)    0.0000                  (X_U10.26)    0.0000                      

(X_U10.27)    0.0000                  (X_U10.28)    0.0000                      

(X_U10.29)    0.0000                  (X_U10.30)    0.0000                      

(X_U10.31)    0.0000                  (X_U10.32)    0.0000                      

(X_U10.33)    0.0000                  (X_U10.34)    0.0000                      

(X_U10.35)    0.0000                  (X_U10.36)    0.0000                      

(X_U10.37)    0.0000                  (X_U10.38)    0.0000                      

(X_U10.39)    0.0000                  (X_U10.40)    0.0000                      

(X_U10.41)    0.0000                  (X_U10.42)    0.0000                      

(X_U10.43)    0.0000                  (X_U10.44)    0.0000                      

(X_U10.45)    0.0000                  (X_U10.46)    0.0000                      

(X_U10.47)    0.0000                  (X_U10.48)    0.0000                      

(X_U10.49)    0.0000                  (X_U10.50)    0.0000                      

(X_U10.51)    0.0000                  (X_U10.52)    0.0000                      

(X_U10.53)    0.0000                  (X_U10.54)    0.0000                      

(X_U10.55)    0.0000                  (X_U10.56)    0.0000                      

(X_U10.57)    0.0000                  (X_U10.58)    0.0000                      

(X_U10.59)    0.0000                  (X_U10.60)    0.0000                      

(X_U10.61)    0.0000                  (X_U10.62)    0.0000                      

(X_U10.63)    0.0000                  (X_U10.64)    0.0000                      

(X_U10.65)    0.0000                  (X_U10.66)    0.0000                      

(X_U10.67)    0.0000                  (X_U10.68)    0.0000                      

(X_U10.69)    0.0000                  (X_U10.70)    0.0000                      

(X_U10.71)    0.0000                  (X_U10.72)    0.0000                      

(X_U10.73)    0.0000                  (X_U10.74)    0.0000                      

(X_U10.75)    0.0000                  (X_U10.76)    0.0000                      

(X_U10.77)    0.0000                  (X_U10.78)    0.0000                      

(X_U10.79)    0.0000                  (X_U10.80)    0.0000                      

(X_U10.81)    0.0000                  (X_U10.82)    0.0000                      

(X_U10.83)    0.0000                  (X_U10.84)    0.0000                      

(X_U10.85)    0.0000                  (X_U10.86)    0.0000                      

(X_U10.87)    0.0000                  (X_U10.88)    0.0000                      

(X_U10.89)    0.0000                  (X_U10.90)    0.0000                      

(X_U10.91)    0.0000                  (X_U10.92)    0.0000                      

(X_U10.93)    0.0000                  (X_U10.94)    0.0000                      

(X_U10.95)    0.0000                  (X_U10.96)    0.0000                      

(X_U10.97)    0.0000                  (X_U10.98)    0.0000                      

(X_U10.99)    0.0000                  (X_U10.100)    0.0000                     

(X_U10.101)    0.0000                 (X_U10.102)    0.0000                     

(X_U10.103)    0.0000                 (X_U10.104)    0.0000                     

(X_U10.105)    0.0000                 (X_U10.106)    0.0000                     

(X_U10.107)    0.0000                 (X_U10.108)    0.0000                     

(X_U10.109)    0.0000                 (X_U10.110)    0.0000                     

(X_U10.111)    0.0000                 (X_U10.112)    0.0000                     

(X_U10.113)    0.0000                 (X_U10.114)    0.0000                     

(X_U10.115)    0.0000                 (X_U10.116)    0.0000                     

(X_U10.117)    0.0000                 (X_U10.118)    0.0000                     

(X_U10.119)    0.0000                 (X_U10.120)    0.0000                     

(X_U10.121)    0.0000                 (X_U10.122)    0.0000                     

(X_U10.123)    0.0000                 (X_U10.124)    0.0000                     

(X_U10.125)    0.0000                 (X_U10.126)    0.0000                     

(X_U10.127)    0.0000                 (X_U10.128)    0.0000                     

(X_U10.129)    0.0000                 (X_U10.130)    0.0000                     

(X_U10.131)    0.0000                 (X_U10.132)    0.0000                     

(X_U10.133)    0.0000                 (X_U10.134)    0.0000                     

(X_U10.135)    0.0000                 (X_U10.136)    0.0000                     

(X_U10.137)    0.0000                 (X_U10.138)    0.0000                     

(X_U10.139)    0.0000                 (X_U10.140)    0.0000                     

(X_U10.141)    0.0000                 (X_U10.142)    0.0000                     

(X_U10.143)    0.0000                 (X_U10.144)    0.0000                     

(X_U10.145)    0.0000                 (X_U10.146)    0.0000                     

(X_U10.147)    0.0000                 (X_U10.148)    0.0000                     

(X_U10.149)    0.0000                 (X_U10.150)    0.0000                     

(X_U10.151)    0.0000                 (X_U10.152)    0.0000                     

(X_U10.153)    0.0000                 (X_U10.154)    0.0000                     

(X_U10.155)    0.0000                 (X_U10.156)    0.0000                     

(X_U10.157)    0.0000                 (X_U10.158)    0.0000                     

(X_U10.159)    0.0000                 (X_U10.160)    0.0000                     

(X_U10.161)    0.0000                 (X_U10.162)    0.0000                     

(X_U10.163)    0.0000                 (X_U10.164)    0.0000                     

(X_U10.165)    0.0000                 (X_U10.166)    0.0000                     

(X_U10.167)    0.0000                 (X_U10.168)    0.0000                     

(X_U10.169)    0.0000                 (X_U10.170)    0.0000                     

(X_U10.171)    0.0000                 (X_U10.172)    0.0000                     

(X_U10.173)    0.0000                 (X_U10.174)    0.0000                     

(X_U10.175)    0.0000                 (X_U10.176)    0.0000                     

(X_U10.177)    0.0000                 (X_U10.178)    0.0000                     

(X_U10.179)    0.0000                 (X_U10.180)    0.0000                     

(X_U10.181)    0.0000                 (X_U10.182)    0.0000                     

(X_U10.183)    0.0000                 (X_U10.184)    0.0000                     

(X_U10.185)    0.0000                 (X_U10.186)    0.0000                     

(X_U10.187)    0.0000                 (X_U10.188)    0.0000                     

(X_U10.189)    0.0000                 (X_U10.190)    0.0000                     

(X_U10.191)    0.0000                 (X_U10.192)    0.0000                     

(X_U10.193)    0.0000                 (X_U10.194)    0.0000                     

(X_U10.195)    0.0000                 (X_U10.196)    0.0000                     

(X_U10.197)    0.0000                 (X_U10.198)    0.0000                     

(X_U10.199)    0.0000                 (X_U10.200)    0.0000                     

(X_U10.201)    0.0000                 (X_U10.202)    0.0000                     

(X_U10.203)    0.0000                 (X_U10.204)    0.0000                     

(X_U10.205)    0.0000                 (X_U10.206)    0.0000                     

(X_U10.207)    0.0000                 (X_U10.208)    0.0000                     

(X_U10.209)    0.0000                 (X_U10.210)    0.0000                     

(X_U10.220)    0.0000                 (X_U10.221)    0.0000                 

Resuming Simulation with the following settings
ITL1 = 291
ITL2 = 171
ABSTOL = 1.26e-010
VNTOL = 4.47e-005


**** 01/20/17 16:02:43 ****** PSpice 17.2.0 (March 2016) ****** ID# 0 ********

 ** Profile: "SCHEMATIC1-bias"  [ C:\Users\Fred\Documents\GitHub\SmartSleeve\schematic\simulation-PSpiceFiles\SCHEMATIC1\bias.sim ] 


 ****     SMALL SIGNAL BIAS SOLUTION       TEMPERATURE =   27.000 DEG C


******************************************************************************



 NODE   VOLTAGE     NODE   VOLTAGE     NODE   VOLTAGE     NODE   VOLTAGE


(  VCC)    3.3000  ( VIN+)    2.6570  ( VIN-)    1.6500  ( VOUT)    2.5584      

(N50572)    2.7414 (N50764)     .5586 (N52009)    1.6500 (N52063)    2.6570     

(N52095)    2.5576 (N52427)    2.5584 (N52814)    6.0000 (ADC_BATT)    2.5015   

(X_U10.11)    4.1731                  (X_U10.12)    3.3001                      

(X_U10.13)-40.25E-06                  (X_U10.14)    -.7980                      

(X_U10.15)    2.6570                  (X_U10.16)    2.6570                      

(X_U10.17)    -.0298                  (X_U10.18)    3.4170                      

(X_U10.19)    4.1731                  (X_U10.20)    3.3001                      

(X_U10.21)-40.25E-06                  (X_U10.22)    -.7980                      

(X_U10.23)    2.5576                  (X_U10.24)    -.0421                      

(X_U10.25)    3.3946                  (X_U10.26)    1.0482                      

(X_U10.27)     .2045                  (X_U10.28)    -.0298                      

(X_U10.29)    2.4561                  (X_U10.30)    2.4561                      

(X_U10.31)    2.4561                  (X_U10.32)     .2045                      

(X_U10.33)    3.3136                  (X_U10.34)    3.3136                      

(X_U10.35)    3.4160                  (X_U10.36)    -.0275                      

(X_U10.37)    1.8680                  (X_U10.38)    1.8680                      

(X_U10.39)    3.4160                  (X_U10.40)    3.4170                      

(X_U10.41)    -.0288                  (X_U10.42)    1.6500                      

(X_U10.43)     .5955                  (X_U10.44)     .5955                      

(X_U10.45)     .5539                  (X_U10.46)     .5539                      

(X_U10.47)    1.6500                  (X_U10.48)    1.6500                      

(X_U10.49)    1.6936                  (X_U10.50)    1.6491                      

(X_U10.51)    1.1925                  (X_U10.52)    1.6504                      

(X_U10.53)    2.3706                  (X_U10.54)    2.3695                      

(X_U10.55)     .0163                  (X_U10.56)    1.6500                      

(X_U10.57)     .0163                  (X_U10.58)    1.0176                      

(X_U10.59)    2.3706                  (X_U10.60)    1.1925                      

(X_U10.61)    1.6936                  (X_U10.62)    1.6500                      

(X_U10.63)    2.5020                  (X_U10.64)    1.4561                      

(X_U10.65)    2.6435                  (X_U10.66)     .2702                      

(X_U10.67)    1.6936                  (X_U10.68)  174.4100                      

(X_U10.69)    1.8024                  (X_U10.70)    1.1925                      

(X_U10.71)    2.3706                  (X_U10.72)   11.8680                      

(X_U10.73)    1.0000                  (X_U10.74)    1.8680                      

(X_U10.75)    1.5114                  (X_U10.76)     .8716                      

(X_U10.77)     .0606                  (X_U10.78)    -.0421                      

(X_U10.79)    3.4631                  (X_U10.80)    3.4631                      

(X_U10.81)    3.4631                  (X_U10.82)     .0606                      

(X_U10.83)    3.0302                  (X_U10.84)    3.0302                      

(X_U10.85)    3.3910                  (X_U10.86)    -.0410                      

(X_U10.87)    1.3717                  (X_U10.88)    1.3717                      

(X_U10.89)    3.3936                  (X_U10.90)    3.3946                      

(X_U10.91)    -.0410                  (X_U10.92)     .5955                      

(X_U10.93)     .5955                  (X_U10.94)     .5539                      

(X_U10.95)     .5539                  (X_U10.96)    2.6570                      

(X_U10.97)    2.6570                  (X_U10.98)    1.6763                      

(X_U10.99)    2.6566                  (X_U10.100)    1.0031                     

(X_U10.101)    2.6584                 (X_U10.102)    2.0425                     

(X_U10.103)    2.3472                 (X_U10.104)     .0041                     

(X_U10.105)    2.6570                 (X_U10.106)     .0041                     

(X_U10.107)    1.0054                 (X_U10.108)    2.0425                     

(X_U10.109)    1.0031                 (X_U10.110)    1.6763                     

(X_U10.111)    2.6570                 (X_U10.112)    2.2881                     

(X_U10.113)    2.4631                 (X_U10.114)    2.6211                     

(X_U10.115)     .2579                 (X_U10.116)    1.6763                     

(X_U10.117)    1.4182                 (X_U10.118) -299.8600                     

(X_U10.119)    1.0031                 (X_U10.120)    2.0425                     

(X_U10.121)   11.3720                 (X_U10.122)    1.3717                     

(X_U10.123)    1.3212                 (X_U10.124)     .6881                     

(X_U10.125)     .0032                 (X_U10.126)    0.0000                     

(X_U10.127)    3.3644                 (X_U10.128)    3.3645                     

(X_U10.129)    3.3644                 (X_U10.130)     .0032                     

(X_U10.131)    3.2968                 (X_U10.132)    3.2968                     

(X_U10.133)    3.2975                 (X_U10.134)     .0025                     

(X_U10.135)    1.6500                 (X_U10.136)    1.6500                     

(X_U10.137)    3.2976                 (X_U10.138)    3.3000                     

(X_U10.139)     .0024                 (X_U10.140)    2.5584                     

(X_U10.141)     .5955                 (X_U10.142)     .5955                     

(X_U10.143)     .5539                 (X_U10.144)     .5539                     

(X_U10.145)    2.5584                 (X_U10.146)    2.5584                     

(X_U10.147)    2.5584                 (X_U10.148) 96.88E-06                     

(X_U10.149)    3.3000                 (X_U10.150)    0.0000                     

(X_U10.151)    2.5584                 (X_U10.152)    2.5584                     

(X_U10.153) 330.0E-06                 (X_U10.154)    0.0000                     

(X_U10.155) 255.8E-06                 (X_U10.156)    2.5579                     

(X_U10.157)    2.5584                 (X_U10.158)    2.5584                     

(X_U10.159)    2.5579                 (X_U10.160)    1.6500                     

(X_U10.161)    2.5543                 (X_U10.162)     .8132                     

(X_U10.163)    2.5625                 (X_U10.164)    2.4868                     

(X_U10.165)    2.4881                 (X_U10.166)     .0461                     

(X_U10.167)    2.5584                 (X_U10.168)     .0461                     

(X_U10.169)     .8119                 (X_U10.170)    2.4868                     

(X_U10.171)     .8132                 (X_U10.172)    1.6500                     

(X_U10.173)    2.5584                 (X_U10.174)    2.6119                     

(X_U10.175)    2.3645                 (X_U10.176)    2.5265                     

(X_U10.177)    2.9429                 (X_U10.178)     .4481                     

(X_U10.179)    1.6500                 (X_U10.180)    2.0354                     

(X_U10.181)    1.2646                 (X_U10.182)     .8132                     

(X_U10.183)    2.4868                 (X_U10.184) 99.39E-06                     

(X_U10.185)     .6551                 (X_U10.186) 99.39E-06                     

(X_U10.187)   11.6500                 (X_U10.188)    1.6500                     

(X_U10.189)    1.3212                 (X_U10.190)    2.1535                     

(X_U10.191)    2.1535                 (X_U10.192) 215.3E-06                     

(X_U10.193) 1.723E-09                 (X_U10.194)    2.6570                     

(X_U10.195)    1.6500                 (X_U10.196)     .6551                     

(X_U10.197) 99.39E-06                 (X_U10.198)    3.2999                     

(X_U10.199) 139.1E-06                 (X_U10.200) 99.39E-06                     

(X_U10.201)     .6551                 (X_U10.202)     .6551                     

(X_U10.203) 99.39E-06                 (X_U10.204) 618.8E-06                     

(X_U10.205) 618.8E-06                 (X_U10.206)    2.8133                     

(X_U10.207)    1.0000                 (X_U10.208) 1.000E-06                     

(X_U10.209)    1.0000                 (X_U10.210)   -1.0000                     

(X_U10.220) 330.0E-06                 (X_U10.221)    0.0000                 




    VOLTAGE SOURCE CURRENTS
    NAME         CURRENT

    V_V1        -2.405E-03
    V_V2        -3.499E-04
    X_U10.V78    0.000E+00
    X_U10.V79    1.007E-05
    X_U10.V80    1.007E-05
    X_U10.V37   -4.190E-05
    X_U10.V38   -6.204E-05
    X_U10.V41   -1.007E-05
    X_U10.V43   -8.207E-05
    X_U10.V44   -4.179E-05
    X_U10.V45    2.014E-05
    X_U10.V53    2.168E-19
    X_U10.V54    4.500E-05
    X_U10.V57    5.520E-12
    X_U10.V58    0.000E+00
    X_U10.V62   -1.355E-20
    X_U10.V63    4.500E-05
    X_U10.V66    9.597E-12
    X_U10.V67    0.000E+00
    X_U10.V71    0.000E+00
    X_U10.V72    4.500E-05
    X_U10.V74    9.939E-11
    X_U10.V76    0.000E+00
    X_U10.V82    9.939E-11
    X_U10.V83    9.939E-11
    X_U10.V84    7.890E-13
    X_U10.V85    8.481E-12
    X_U10.V86    9.939E-11
    X_U10.V88   -1.000E-12
    X_U10.V89   -1.000E-12

    TOTAL POWER DISSIPATION   1.04E-02  WATTS


**** 01/20/17 16:02:43 ****** PSpice 17.2.0 (March 2016) ****** ID# 0 ********

 ** Profile: "SCHEMATIC1-bias"  [ C:\Users\Fred\Documents\GitHub\SmartSleeve\schematic\simulation-PSpiceFiles\SCHEMATIC1\bias.sim ] 


 ****     OPERATING POINT INFORMATION      TEMPERATURE =   27.000 DEG C


******************************************************************************






**** VOLTAGE-CONTROLLED CURRENT SOURCES


NAME         X_U10.G3    X_U10.G4    X_U10.G8    X_U10.G9    X_U10.G10 
I-SOURCE     0.000E+00  -3.507E-10  -1.744E-04   1.744E-04   1.047E-03

NAME         X_U10.G11   X_U10.G13   X_U10.G14   X_U10.G15   X_U10.G16 
I-SOURCE     1.047E-03   8.000E-06   4.500E-05   0.000E+00   6.100E-10

NAME         X_U10.G17   X_U10.G18   X_U10.G19   X_U10.G20   X_U10.G22 
I-SOURCE     3.045E-04  -3.045E-04   1.047E-03   1.047E-03   8.000E-06

NAME         X_U10.G23   X_U10.G24   X_U10.G25   X_U10.G26   X_U10.G27 
I-SOURCE     4.500E-05   0.000E+00  -6.606E-13   2.413E-12  -2.413E-12

NAME         X_U10.G28   X_U10.G29   X_U10.G30   X_U10.G31   X_U10.G32 
I-SOURCE     8.119E-04   8.119E-04  -2.912E-07   8.000E-05   4.500E-05

NAME         X_U10.G33   X_U10.G34   X_U10.G35   X_U10.G36 
I-SOURCE     1.723E-09   1.260E-03   1.300E-05   1.300E-05


**** VOLTAGE-CONTROLLED VOLTAGE SOURCES


NAME         X_U10.E59   X_U10.E60   X_U10.E61   X_U10.E68   X_U10.E71 
V-SOURCE    -2.982E-02   3.417E+00   0.000E+00   1.723E+00  -1.754E-06
I-SOURCE     1.144E-03  -1.144E-03   7.743E-13  -1.759E-04   1.754E-15

NAME         X_U10.E72   X_U10.E73   X_U10.E74   X_U10.E75   X_U10.E76 
V-SOURCE     1.046E+00   1.222E+00   1.034E-01   2.343E-01   1.650E+00
I-SOURCE    -1.048E-09  -1.225E-09   8.106E-13   8.329E-13   0.000E+00

NAME         X_U10.E78   X_U10.E79   X_U10.E80   X_U10.E81   X_U10.E88 
V-SOURCE     1.000E+01  -4.206E-02   3.395E+00   0.000E+00   1.718E+00
I-SOURCE     0.000E+00   1.450E-03  -1.450E-03  -3.323E-12   3.070E-04

NAME         X_U10.E91   X_U10.E92   X_U10.E93   X_U10.E94   X_U10.E95 
V-SOURCE     3.050E-06   1.352E+00   1.045E+00   3.644E-01   1.026E-01
I-SOURCE    -3.050E-15  -1.486E-09  -1.047E-09  -5.775E-13   8.101E-13

NAME         X_U10.E96   X_U10.E98   X_U10.E99   X_U10.E100  X_U10.E101
V-SOURCE     2.657E+00   1.000E+01   0.000E+00   3.300E+00   0.000E+00
I-SOURCE     0.000E+00   0.000E+00   9.832E-04  -9.832E-04  -2.737E-12

NAME         X_U10.E102  X_U10.E103  X_U10.E104  X_U10.E105  X_U10.E106
V-SOURCE     3.300E+00   0.000E+00   2.558E+00   2.558E-04   0.000E+00
I-SOURCE    -3.300E-06   0.000E+00  -2.558E-06  -3.707E-12  -3.451E-12

NAME         X_U10.E107  X_U10.E108  X_U10.E109  X_U10.E110  X_U10.E111
V-SOURCE     4.950E-04   1.650E+00   2.558E+00   2.558E+00  -3.303E-09
I-SOURCE    -3.946E-12   3.145E-12  -1.277E-09  -1.281E-09   3.280E-18

NAME         X_U10.E112  X_U10.E113  X_U10.E114  X_U10.E115  X_U10.E116
V-SOURCE     8.132E-01   8.132E-01   3.187E-03   3.187E-03   2.558E+00
I-SOURCE    -8.145E-10  -8.145E-10   6.850E-13   6.850E-13   0.000E+00

NAME         X_U10.E118  X_U10.E119  X_U10.E120  X_U10.E121  X_U10.E122
V-SOURCE     1.000E+01   2.154E+00   1.723E-09   1.650E+00   2.657E+00
I-SOURCE     0.000E+00  -2.153E-06  -1.723E-18   5.035E-04  -5.035E-04

NAME         X_U10.E124  X_U10.E125  X_U10.E126  X_U10.E127  X_U10.E128
V-SOURCE     1.391E-04   1.391E-04  -5.933E-05  -4.025E-05  -5.933E-05
I-SOURCE     6.498E-13   8.342E-12   4.190E-05   6.204E-05   8.207E-05

NAME         X_U10.E129  X_U10.E130  X_U10.E131  X_U10.E132
V-SOURCE    -4.025E-05   1.000E+00  -1.000E+00   6.188E-04
I-SOURCE     4.179E-05  -1.000E-09   1.000E-06  -6.188E-10


**** DIODES


NAME         X_U10.D6    X_U10.D7    X_U10.D8    X_U10.D9    X_U10.D10 
MODEL        X_U10.D     X_U10.D     X_U10.DIN   X_U10.DIN   X_U10.DVN 
ID          -1.78E-12   -1.69E-12    1.00E-04    1.00E-04    2.00E-07 
VD          -1.77E+00   -1.68E+00    5.96E-01    5.96E-01    5.54E-01 
REQ          1.00E+12    1.00E+12    2.59E+02    2.59E+02    1.29E+05 
CAP          0.00E+00    0.00E+00    0.00E+00    0.00E+00    0.00E+00 

NAME         X_U10.D11   X_U10.D12   X_U10.D13   X_U10.D14   X_U10.D15 
MODEL        X_U10.DVN   X_U10.D     X_U10.D     X_U10.D     X_U10.D   
ID           2.00E-07   -1.56E-12   -1.91E-12    2.78E-12    1.73E-12 
VD           5.54E-01   -1.55E+00   -1.90E+00    1.44E-01    1.31E-01 
REQ          1.29E+05    1.00E+12    1.00E+12    9.68E+09    1.58E+10 
CAP          0.00E+00    0.00E+00    0.00E+00    0.00E+00    0.00E+00 

NAME         X_U10.D18   X_U10.D19   X_U10.D21   X_U10.D22   X_U10.D23 
MODEL        X_U10.D     X_U10.D     X_U10.D     X_U10.D     X_U10.DIN 
ID          -1.72E-10    1.74E-04   -7.48E-13   -2.71E-12    1.00E-04 
VD          -1.72E+02    6.10E-01   -7.38E-01   -2.70E+00    5.96E-01 
REQ          1.00E+12    1.48E+02    1.00E+12    1.00E+12    2.59E+02 
CAP          0.00E+00    0.00E+00    0.00E+00    0.00E+00    0.00E+00 

NAME         X_U10.D24   X_U10.D25   X_U10.D26   X_U10.D27   X_U10.D28 
MODEL        X_U10.DIN   X_U10.DVN   X_U10.DVN   X_U10.D     X_U10.D   
ID           1.00E-04    2.00E-07    2.00E-07   -2.03E-12   -1.42E-12 
VD           5.96E-01    5.54E-01    5.54E-01   -2.02E+00   -1.41E+00 
REQ          2.59E+02    1.29E+05    1.29E+05    1.00E+12    1.00E+12 
CAP          0.00E+00    0.00E+00    0.00E+00    0.00E+00    0.00E+00 

NAME         X_U10.D29   X_U10.D30   X_U10.D31   X_U10.D32   X_U10.D34 
MODEL        X_U10.D     X_U10.D     X_U10.D     X_U10.D     X_U10.D   
ID           1.73E-12    1.33E-10    3.04E-04   -3.01E-10   -7.52E-13 
VD           1.31E-01    2.46E-01    6.24E-01   -3.01E+02   -7.42E-01 
REQ          1.58E+10    1.94E+08    8.50E+01    1.00E+12    1.00E+12 
CAP          0.00E+00    0.00E+00    0.00E+00    0.00E+00    0.00E+00 

NAME         X_U10.D35   X_U10.D36   X_U10.D37   X_U10.D38   X_U10.D39 
MODEL        X_U10.D     X_U10.DIN   X_U10.DIN   X_U10.DVN   X_U10.DVN 
ID          -2.57E-12    1.00E-04    1.00E-04    2.00E-07    2.00E-07 
VD          -2.56E+00    5.96E-01    5.96E-01    5.54E-01    5.54E-01 
REQ          1.00E+12    2.59E+02    2.59E+02    1.29E+05    1.29E+05 
CAP          0.00E+00    0.00E+00    0.00E+00    0.00E+00    0.00E+00 

NAME         X_U10.D40   X_U10.D41   X_U10.D42   X_U10.D43   X_U10.D44 
MODEL        X_U10.D     X_U10.D     X_U10.D     X_U10.D     X_U10.D   
ID          -1.66E-12   -1.66E-12    1.37E-12    1.37E-12    3.81E-07 
VD          -1.65E+00   -1.65E+00    1.25E-01    1.25E-01    4.51E-01 
REQ          1.00E+12    1.00E+12    2.01E+10    2.01E+10    6.79E+04 
CAP          0.00E+00    0.00E+00    0.00E+00    0.00E+00    0.00E+00 

NAME         X_U10.D45   X_U10.D46   X_U10.D47   X_U10.D48   X_U10.D49 
MODEL        X_U10.D     X_U10.D     X_U10.D     X_U10.D     X_U10.D   
ID           3.81E-07    1.00E-03    1.00E-03    1.00E-03    1.00E-03 
VD           4.51E-01    6.55E-01    6.55E-01    6.55E-01    6.55E-01 
REQ          6.79E+04    2.59E+01    2.59E+01    2.59E+01    2.59E+01 
CAP          0.00E+00    0.00E+00    0.00E+00    0.00E+00    0.00E+00 


**** BIPOLAR JUNCTION TRANSISTORS


NAME         X_U10.Q21   X_U10.Q22   X_U10.Q23   X_U10.Q24   X_U10.Q25 
MODEL        X_U10.Q     X_U10.QP    X_U10.Q     X_U10.QP    X_U10.Q   
IB          -8.33E-13    8.11E-13   -8.10E-13   -5.78E-13   -6.85E-13 
IC           2.78E-12   -1.73E-12    1.73E-12   -1.33E-10    1.37E-12 
VBE          2.34E-01   -1.03E-01    1.03E-01   -3.64E-01    3.19E-03 
VBC         -8.44E-01    8.12E-01   -8.11E-01    7.42E-01   -6.85E-01 
VCE          1.08E+00   -9.15E-01    9.14E-01   -1.11E+00    6.88E-01 
BETADC      -3.34E+00   -2.14E+00   -2.14E+00    2.31E+02   -2.00E+00 
GM           3.32E-11    2.10E-13    2.04E-13    5.09E-09    4.37E-15 
RPI          2.92E+12    8.26E+13    8.30E+13    1.96E+10    9.96E+13 
RX           0.00E+00    0.00E+00    0.00E+00    0.00E+00    0.00E+00 
RO           1.00E+12    1.00E+12    1.00E+12    1.00E+12    1.00E+12 
CBE          0.00E+00    0.00E+00    0.00E+00    0.00E+00    0.00E+00 
CBC          0.00E+00    0.00E+00    0.00E+00    0.00E+00    0.00E+00 
CJS          0.00E+00    0.00E+00    0.00E+00    0.00E+00    0.00E+00 
BETAAC       9.71E+01    1.74E+01    1.70E+01    1.00E+02    4.35E-01 
CBX/CBX2     0.00E+00    0.00E+00    0.00E+00    0.00E+00    0.00E+00 
FT/FT2       5.29E+08    3.35E+06    3.25E+06    8.10E+10    6.96E+04 



NAME         X_U10.Q26   X_U10.Q27 
MODEL        X_U10.QP    X_U10.QP  
IB           6.85E-13   -1.50E-08 
IC          -1.37E-12    1.49E-08 
VBE         -3.19E-03   -4.87E-01 
VBC          6.85E-01   -4.87E-01 
VCE         -6.88E-01    0.00E+00 
BETADC      -2.00E+00   -9.90E-01 
GM           4.37E-15    0.00E+00 
RPI          9.96E+13    1.74E+08 
RX           0.00E+00    0.00E+00 
RO           1.00E+12    1.74E+06 
CBE          0.00E+00    0.00E+00 
CBC          0.00E+00    0.00E+00 
CJS          0.00E+00    0.00E+00 
BETAAC       4.35E-01    0.00E+00 
CBX/CBX2     0.00E+00    0.00E+00 
FT/FT2       6.96E+04    0.00E+00 




**** JFETS


NAME         X_U10.J2    X_U10.J3    X_U10.J4    X_U10.J5    X_U10.J6  
MODEL        X_U10.JX    X_U10.JX    X_U10.JX    X_U10.JX    X_U10.JX  
ID           1.77E-12    1.77E-12    1.38E-12    1.38E-12    7.38E-13 
VGS         -1.77E+00   -1.77E+00   -1.38E+00   -1.38E+00   -7.38E-01 
VDS          0.00E+00    0.00E+00    0.00E+00    0.00E+00    0.00E+00 
GM           0.00E+00    0.00E+00    0.00E+00    0.00E+00    0.00E+00 
GDS          4.66E-05    4.66E-05    1.24E-04    1.24E-04    2.52E-04 
CGS          0.00E+00    0.00E+00    0.00E+00    0.00E+00    0.00E+00 
CGD          0.00E+00    0.00E+00    0.00E+00    0.00E+00    0.00E+00 

NAME         X_U10.J7    X_U10.J8    X_U10.J9    X_U10.J10   X_U10.J11 
MODEL        X_U10.JX    X_U10.JX    X_U10.JX    X_U10.J     X_U10.J   
ID           7.38E-13    2.40E-12    2.40E-12    3.95E-13    7.52E-13 
VGS         -7.38E-01   -2.40E+00   -2.40E+00   -3.85E-01   -7.42E-01 
VDS          0.00E+00    0.00E+00    0.00E+00    0.00E+00    0.00E+00 
GM           0.00E+00    0.00E+00    0.00E+00    0.00E+00    0.00E+00 
GDS          2.52E-04    0.00E+00    0.00E+00    3.23E-04    2.52E-04 
CGS          0.00E+00    0.00E+00    0.00E+00    0.00E+00    0.00E+00 
CGD          0.00E+00    0.00E+00    0.00E+00    0.00E+00    0.00E+00 

NAME         X_U10.J12   X_U10.J13 
MODEL        X_U10.J     X_U10.J   
ID           2.12E-12    2.12E-12 
VGS         -2.11E+00   -2.11E+00 
VDS          0.00E+00    0.00E+00 
GM           0.00E+00    0.00E+00 
GDS          0.00E+00    0.00E+00 
CGS          0.00E+00    0.00E+00 
CGD          0.00E+00    0.00E+00 


**** MOSFETS


NAME         X_U10.M50   X_U10.M51   X_U10.M52   X_U10.M53   X_U10.M54 
MODEL        X_U10.NMIR  X_U10.NMIR  X_U10.PMIR  X_U10.PMIR  X_U10.NMIR
ID           3.10E-05    3.10E-05   -2.10E-05   -2.10E-05    2.09E-05 
VGS          7.68E-01    7.68E-01   -7.56E-01   -7.56E-01    7.56E-01 
VDS          7.68E-01    3.46E+00   -7.56E-01   -1.52E+00    7.56E-01 
VBS          0.00E+00    0.00E+00    0.00E+00    0.00E+00    0.00E+00 
VTH          7.00E-01    7.00E-01   -7.00E-01   -7.00E-01    7.00E-01 
VDSAT        6.82E-02    6.82E-02   -5.61E-02   -5.61E-02    5.60E-02 
Lin0/Sat1   -1.00E+00   -1.00E+00   -1.00E+00   -1.00E+00   -1.00E+00 
if          -1.00E+00   -1.00E+00   -1.00E+00   -1.00E+00   -1.00E+00 
ir          -1.00E+00   -1.00E+00   -1.00E+00   -1.00E+00   -1.00E+00 
TAU         -1.00E+00   -1.00E+00   -1.00E+00   -1.00E+00   -1.00E+00 
GM           9.10E-04    9.10E-04    7.47E-04    7.47E-04    7.46E-04 
GDS          0.00E+00    0.00E+00    0.00E+00    0.00E+00    0.00E+00 
GMB          0.00E+00    0.00E+00    0.00E+00    0.00E+00    0.00E+00 
CBD          0.00E+00    0.00E+00    0.00E+00    0.00E+00    0.00E+00 
CBS          0.00E+00    0.00E+00    0.00E+00    0.00E+00    0.00E+00 
CGSOV        0.00E+00    0.00E+00    0.00E+00    0.00E+00    0.00E+00 
CGDOV        0.00E+00    0.00E+00    0.00E+00    0.00E+00    0.00E+00 
CGBOV        0.00E+00    0.00E+00    0.00E+00    0.00E+00    0.00E+00 
CGS          0.00E+00    0.00E+00    0.00E+00    0.00E+00    0.00E+00 
CGD          0.00E+00    0.00E+00    0.00E+00    0.00E+00    0.00E+00 
CGB          0.00E+00    0.00E+00    0.00E+00    0.00E+00    0.00E+00 

NAME         X_U10.M55   X_U10.M56   X_U10.M57   X_U10.M58   X_U10.M59 
MODEL        X_U10.NMIR  X_U10.PMIR  X_U10.PMIR  X_U10.NOUT  X_U10.POUT
ID           2.09E-05   -4.10E-05   -4.10E-05    1.80E-05   -7.95E-06 
VGS          7.56E-01   -7.78E-01   -7.78E-01    1.22E+00   -1.05E+00 
VDS          3.36E+00   -7.78E-01   -1.62E+00    1.68E+00   -1.77E+00 
VBS          0.00E+00    0.00E+00    0.00E+00    0.00E+00    0.00E+00 
VTH          7.00E-01   -7.00E-01   -7.00E-01    7.00E-01   -7.00E-01 
VDSAT        5.60E-02   -7.85E-02   -7.85E-02    5.20E-01   -3.45E-01 
Lin0/Sat1   -1.00E+00   -1.00E+00   -1.00E+00   -1.00E+00   -1.00E+00 
if          -1.00E+00   -1.00E+00   -1.00E+00   -1.00E+00   -1.00E+00 
ir          -1.00E+00   -1.00E+00   -1.00E+00   -1.00E+00   -1.00E+00 
TAU         -1.00E+00   -1.00E+00   -1.00E+00   -1.00E+00   -1.00E+00 
GM           7.46E-04    1.05E-03    1.05E-03    6.93E-05    4.61E-05 
GDS          0.00E+00    0.00E+00    0.00E+00    0.00E+00    0.00E+00 
GMB          0.00E+00    0.00E+00    0.00E+00    0.00E+00    0.00E+00 
CBD          0.00E+00    0.00E+00    0.00E+00    0.00E+00    0.00E+00 
CBS          0.00E+00    0.00E+00    0.00E+00    0.00E+00    0.00E+00 
CGSOV        0.00E+00    0.00E+00    0.00E+00    0.00E+00    0.00E+00 
CGDOV        0.00E+00    0.00E+00    0.00E+00    0.00E+00    0.00E+00 
CGBOV        0.00E+00    0.00E+00    0.00E+00    0.00E+00    0.00E+00 
CGS          0.00E+00    0.00E+00    0.00E+00    0.00E+00    0.00E+00 
CGD          0.00E+00    0.00E+00    0.00E+00    0.00E+00    0.00E+00 
CGB          0.00E+00    0.00E+00    0.00E+00    0.00E+00    0.00E+00 

NAME         X_U10.M60   X_U10.M61   X_U10.M62   X_U10.M63   X_U10.M64 
MODEL        X_U10.POUT  X_U10.PIN   X_U10.PIN   X_U10.NOUT  X_U10.PIN 
ID          -8.00E-06   -2.25E-05   -2.25E-05    8.00E-06   -4.50E-05 
VGS         -1.05E+00   -8.06E-01   -8.06E-01    1.05E+00   -7.73E-01 
VDS         -1.05E+00   -2.44E+00   -2.44E+00    1.05E+00   -1.96E+00 
VBS          0.00E+00    0.00E+00    0.00E+00    0.00E+00    0.00E+00 
VTH         -7.00E-01   -7.00E-01   -7.00E-01    7.00E-01   -7.00E-01 
VDSAT       -3.46E-01   -1.06E-01   -1.06E-01    3.46E-01   -7.35E-02 
Lin0/Sat1   -1.00E+00   -1.00E+00   -1.00E+00   -1.00E+00   -1.00E+00 
if          -1.00E+00   -1.00E+00   -1.00E+00   -1.00E+00   -1.00E+00 
ir          -1.00E+00   -1.00E+00   -1.00E+00   -1.00E+00   -1.00E+00 
TAU         -1.00E+00   -1.00E+00   -1.00E+00   -1.00E+00   -1.00E+00 
GM           4.62E-05    4.24E-04    4.24E-04    4.62E-05    1.22E-03 
GDS          0.00E+00    0.00E+00    0.00E+00    0.00E+00    0.00E+00 
GMB          0.00E+00    0.00E+00    0.00E+00    0.00E+00    0.00E+00 
CBD          0.00E+00    0.00E+00    0.00E+00    0.00E+00    0.00E+00 
CBS          0.00E+00    0.00E+00    0.00E+00    0.00E+00    0.00E+00 
CGSOV        0.00E+00    0.00E+00    0.00E+00    0.00E+00    0.00E+00 
CGDOV        0.00E+00    0.00E+00    0.00E+00    0.00E+00    0.00E+00 
CGBOV        0.00E+00    0.00E+00    0.00E+00    0.00E+00    0.00E+00 
CGS          0.00E+00    0.00E+00    0.00E+00    0.00E+00    0.00E+00 
CGD          0.00E+00    0.00E+00    0.00E+00    0.00E+00    0.00E+00 
CGB          0.00E+00    0.00E+00    0.00E+00    0.00E+00    0.00E+00 

NAME         X_U10.M65   X_U10.M66   X_U10.M67   X_U10.M68   X_U10.M69 
MODEL        X_U10.PIN   X_U10.PSD   X_U10.NOUT  X_U10.POUT  X_U10.POUT
ID          -4.50E-05    1.83E-13    7.89E-06   -2.80E-05   -8.00E-06 
VGS         -7.73E-01   -1.00E-05    1.04E+00   -1.35E+00   -1.05E+00 
VDS         -7.73E-01   -1.74E-01    2.70E+00   -7.33E-01   -1.05E+00 
VBS          0.00E+00   -3.57E-01    0.00E+00    0.00E+00    0.00E+00 
VTH         -7.00E-01   -5.00E+00    7.00E-01   -7.00E-01   -7.00E-01 
VDSAT       -7.35E-02    0.00E+00    3.44E-01   -6.48E-01   -3.46E-01 
Lin0/Sat1   -1.00E+00   -1.00E+00   -1.00E+00   -1.00E+00   -1.00E+00 
if          -1.00E+00   -1.00E+00   -1.00E+00   -1.00E+00   -1.00E+00 
ir          -1.00E+00   -1.00E+00   -1.00E+00   -1.00E+00   -1.00E+00 
TAU         -1.00E+00   -1.00E+00   -1.00E+00   -1.00E+00   -1.00E+00 
GM           1.22E-03    0.00E+00    4.59E-05    8.65E-05    4.62E-05 
GDS          0.00E+00    0.00E+00    0.00E+00    0.00E+00    0.00E+00 
GMB          0.00E+00    0.00E+00    0.00E+00    0.00E+00    0.00E+00 
CBD          0.00E+00    0.00E+00    0.00E+00    0.00E+00    0.00E+00 
CBS          0.00E+00    0.00E+00    0.00E+00    0.00E+00    0.00E+00 
CGSOV        0.00E+00    0.00E+00    0.00E+00    0.00E+00    0.00E+00 
CGDOV        0.00E+00    0.00E+00    0.00E+00    0.00E+00    0.00E+00 
CGBOV        0.00E+00    0.00E+00    0.00E+00    0.00E+00    0.00E+00 
CGS          0.00E+00    0.00E+00    0.00E+00    0.00E+00    0.00E+00 
CGD          0.00E+00    0.00E+00    0.00E+00    0.00E+00    0.00E+00 
CGB          0.00E+00    0.00E+00    0.00E+00    0.00E+00    0.00E+00 

NAME         X_U10.M70   X_U10.M71   X_U10.M72   X_U10.M73   X_U10.M74 
MODEL        X_U10.PIN   X_U10.PIN   X_U10.NOUT  X_U10.PIN   X_U10.PIN 
ID          -2.25E-05   -2.25E-05    8.00E-06   -4.50E-05   -4.50E-05 
VGS         -8.06E-01   -8.06E-01    1.05E+00   -7.73E-01   -7.73E-01 
VDS         -3.46E+00   -3.46E+00    1.05E+00   -9.31E-01   -7.73E-01 
VBS          0.00E+00    0.00E+00    0.00E+00    0.00E+00    0.00E+00 
VTH         -7.00E-01   -7.00E-01    7.00E-01   -7.00E-01   -7.00E-01 
VDSAT       -1.06E-01   -1.06E-01    3.46E-01   -7.35E-02   -7.35E-02 
Lin0/Sat1   -1.00E+00   -1.00E+00   -1.00E+00   -1.00E+00   -1.00E+00 
if          -1.00E+00   -1.00E+00   -1.00E+00   -1.00E+00   -1.00E+00 
ir          -1.00E+00   -1.00E+00   -1.00E+00   -1.00E+00   -1.00E+00 
TAU         -1.00E+00   -1.00E+00   -1.00E+00   -1.00E+00   -1.00E+00 
GM           4.24E-04    4.24E-04    4.62E-05    1.22E-03    1.22E-03 
GDS          0.00E+00    0.00E+00    0.00E+00    0.00E+00    0.00E+00 
GMB          0.00E+00    0.00E+00    0.00E+00    0.00E+00    0.00E+00 
CBD          0.00E+00    0.00E+00    0.00E+00    0.00E+00    0.00E+00 
CBS          0.00E+00    0.00E+00    0.00E+00    0.00E+00    0.00E+00 
CGSOV        0.00E+00    0.00E+00    0.00E+00    0.00E+00    0.00E+00 
CGDOV        0.00E+00    0.00E+00    0.00E+00    0.00E+00    0.00E+00 
CGBOV        0.00E+00    0.00E+00    0.00E+00    0.00E+00    0.00E+00 
CGS          0.00E+00    0.00E+00    0.00E+00    0.00E+00    0.00E+00 
CGD          0.00E+00    0.00E+00    0.00E+00    0.00E+00    0.00E+00 
CGB          0.00E+00    0.00E+00    0.00E+00    0.00E+00    0.00E+00 

NAME         X_U10.M75   X_U10.M76               X_U10.M77             
MODEL        X_U10.PSD   X_U10.NOUTO             X_U10.POUTO           
ID           1.27E-12    8.17E-05               -8.17E-05             
VGS         -1.00E-05    8.11E-01               -8.11E-01             
VDS          3.05E-01    2.55E+00               -7.35E-01             
VBS         -5.05E-02    0.00E+00                0.00E+00             
VTH         -5.00E+00    7.00E-01               -7.00E-01             
VDSAT        0.00E+00    1.11E-01               -1.11E-01             
Lin0/Sat1   -1.00E+00   -1.00E+00               -1.00E+00             
if          -1.00E+00   -1.00E+00               -1.00E+00             
ir          -1.00E+00   -1.00E+00               -1.00E+00             
TAU         -1.00E+00   -1.00E+00               -1.00E+00             
GM           0.00E+00    1.48E-03                1.48E-03             
GDS          0.00E+00    0.00E+00                0.00E+00             
GMB          0.00E+00    0.00E+00                0.00E+00             
CBD          0.00E+00    0.00E+00                0.00E+00             
CBS          0.00E+00    0.00E+00                0.00E+00             
CGSOV        0.00E+00    0.00E+00                0.00E+00             
CGDOV        0.00E+00    0.00E+00                0.00E+00             
CGBOV        0.00E+00    0.00E+00                0.00E+00             
CGS          0.00E+00    0.00E+00                0.00E+00             
CGD          0.00E+00    0.00E+00                0.00E+00             
CGB          0.00E+00    0.00E+00                0.00E+00             

NAME         X_U10.M78               X_U10.M79   X_U10.M80 
MODEL        X_U10.POUTO             X_U10.PIN   X_U10.PIN 
ID          -8.00E-05               -2.25E-05   -2.25E-05 
VGS         -8.10E-01               -8.06E-01   -8.06E-01 
VDS         -8.10E-01               -3.32E+00   -3.32E+00 
VBS          0.00E+00                0.00E+00    0.00E+00 
VTH         -7.00E-01               -7.00E-01   -7.00E-01 
VDSAT       -1.10E-01               -1.06E-01   -1.06E-01 
Lin0/Sat1   -1.00E+00               -1.00E+00   -1.00E+00 
if          -1.00E+00               -1.00E+00   -1.00E+00 
ir          -1.00E+00               -1.00E+00   -1.00E+00 
TAU         -1.00E+00               -1.00E+00   -1.00E+00 
GM           1.46E-03                4.24E-04    4.24E-04 
GDS          0.00E+00                0.00E+00    0.00E+00 
GMB          0.00E+00                0.00E+00    0.00E+00 
CBD          0.00E+00                0.00E+00    0.00E+00 
CBS          0.00E+00                0.00E+00    0.00E+00 
CGSOV        0.00E+00                0.00E+00    0.00E+00 
CGDOV        0.00E+00                0.00E+00    0.00E+00 
CGBOV        0.00E+00                0.00E+00    0.00E+00 
CGS          0.00E+00                0.00E+00    0.00E+00 
CGD          0.00E+00                0.00E+00    0.00E+00 
CGB          0.00E+00                0.00E+00    0.00E+00 

NAME         X_U10.M81               X_U10.M82   X_U10.M83   X_U10.M84 
MODEL        X_U10.NOUTO             X_U10.PIN   X_U10.PIN   X_U10.PSD 
ID           8.00E-05               -4.50E-05   -4.50E-05    6.61E-13 
VGS          8.10E-01               -7.73E-01   -7.73E-01   -1.00E-05 
VDS          8.10E-01               -9.36E-01   -7.73E-01    2.41E-09 
VBS          0.00E+00                0.00E+00    0.00E+00   -3.29E-01 
VTH          7.00E-01               -7.00E-01   -7.00E-01   -5.00E+00 
VDSAT        1.10E-01               -7.35E-02   -7.35E-02    0.00E+00 
Lin0/Sat1   -1.00E+00               -1.00E+00   -1.00E+00   -1.00E+00 
if          -1.00E+00               -1.00E+00   -1.00E+00   -1.00E+00 
ir          -1.00E+00               -1.00E+00   -1.00E+00   -1.00E+00 
TAU         -1.00E+00               -1.00E+00   -1.00E+00   -1.00E+00 
GM           1.46E-03                1.22E-03    1.22E-03    0.00E+00 
GDS          0.00E+00                0.00E+00    0.00E+00    0.00E+00 
GMB          0.00E+00                0.00E+00    0.00E+00    0.00E+00 
CBD          0.00E+00                0.00E+00    0.00E+00    0.00E+00 
CBS          0.00E+00                0.00E+00    0.00E+00    0.00E+00 
CGSOV        0.00E+00                0.00E+00    0.00E+00    0.00E+00 
CGDOV        0.00E+00                0.00E+00    0.00E+00    0.00E+00 
CGBOV        0.00E+00                0.00E+00    0.00E+00    0.00E+00 
CGS          0.00E+00                0.00E+00    0.00E+00    0.00E+00 
CGD          0.00E+00                0.00E+00    0.00E+00    0.00E+00 
CGB          0.00E+00                0.00E+00    0.00E+00    0.00E+00 

NAME         X_U10.M85   X_U10.M86   X_U10.M87   X_U10.M88 
MODEL        X_U10.PSH1  X_U10.PSH2  X_U10.NIQ   X_U10.NIQ 
ID           1.32E-06    1.00E-12    9.94E-17    6.46E-04 
VGS          3.30E+00    6.19E-04    1.00E-06    1.00E+00 
VDS          6.19E-04    1.00E+00    9.94E-05    9.69E-05 
VBS          0.00E+00    0.00E+00    0.00E+00    0.00E+00 
VTH          1.70E+00    7.00E-01    5.00E-01    5.00E-01 
VDSAT        1.60E+00    0.00E+00    0.00E+00    5.00E-01 
Lin0/Sat1   -1.00E+00   -1.00E+00   -1.00E+00   -1.00E+00 
if          -1.00E+00   -1.00E+00   -1.00E+00   -1.00E+00 
ir          -1.00E+00   -1.00E+00   -1.00E+00   -1.00E+00 
TAU         -1.00E+00   -1.00E+00   -1.00E+00   -1.00E+00 
GM           8.25E-07    0.00E+00    0.00E+00    1.29E-03 
GDS          2.13E-03    0.00E+00    0.00E+00    6.67E+00 
GMB          0.00E+00    0.00E+00    0.00E+00    0.00E+00 
CBD          0.00E+00    0.00E+00    0.00E+00    0.00E+00 
CBS          0.00E+00    0.00E+00    0.00E+00    0.00E+00 
CGSOV        0.00E+00    0.00E+00    0.00E+00    0.00E+00 
CGDOV        0.00E+00    0.00E+00    0.00E+00    0.00E+00 
CGBOV        0.00E+00    0.00E+00    0.00E+00    0.00E+00 
CGS          0.00E+00    0.00E+00    0.00E+00    0.00E+00 
CGD          0.00E+00    0.00E+00    0.00E+00    0.00E+00 
CGB          0.00E+00    0.00E+00    0.00E+00    0.00E+00 

          JOB CONCLUDED
 AutoConverge Simulator Options
 ITL1 = 291
 ITL2 = 171
 ITL4 = 10
 RELTOL = 0.001
 ABSTOL = 1.25893e-010
 VNTOL = 4.46684e-005
 PIVTOL = 1e-013

**** 01/20/17 16:02:43 ****** PSpice 17.2.0 (March 2016) ****** ID# 0 ********

 ** Profile: "SCHEMATIC1-bias"  [ C:\Users\Fred\Documents\GitHub\SmartSleeve\schematic\simulation-PSpiceFiles\SCHEMATIC1\bias.sim ] 


 ****     JOB STATISTICS SUMMARY


******************************************************************************



  Total job time (using Solver 1)   =         .84
